* NGSPICE file created from r2r_dac_control_rcx.ext - technology: sky130A

.subckt r2r_dac_control_rcx clk comp data_out[5] data_out[3] data_out[2] data_out[7]
+ data_out[4] data_out[6] data_out[0] data_out[1] reset VGND VPWR
X0 VPWR VGND VPWR VPWR sky130_fd_pr__pfet_01v8_hvt ad=0.2262 pd=2.26 as=235.80304 ps=2.32093k w=0.87 l=0.59
X1 a_10244_10749# a_9301_10383# a_10136_10749# VPWR sky130_fd_pr__pfet_01v8_hvt ad=0.0441 pd=0.63 as=0.0819 ps=0.81 w=0.42 l=0.15
X2 VGND VPWR VGND VGND sky130_fd_pr__nfet_01v8 ad=0.143 pd=1.62 as=150.85835 ps=1.66078k w=0.55 l=4.73
X3 VGND VPWR VGND VGND sky130_fd_pr__nfet_01v8 ad=0.143 pd=1.62 as=0 ps=0 w=0.55 l=1.05
X4 VGND VPWR VGND VGND sky130_fd_pr__nfet_01v8 ad=0.143 pd=1.62 as=0 ps=0 w=0.55 l=4.73
X5 VPWR clknet_1_1__leaf_clk a_10975_12021# VPWR sky130_fd_pr__pfet_01v8_hvt ad=0.0864 pd=0.91 as=0.1664 ps=1.8 w=0.64 l=0.15
X6 VPWR VGND VPWR VPWR sky130_fd_pr__pfet_01v8_hvt ad=0.2262 pd=2.26 as=0 ps=0 w=0.87 l=0.59
X7 VGND VPWR VGND VGND sky130_fd_pr__nfet_01v8 ad=0.143 pd=1.62 as=0 ps=0 w=0.55 l=4.73
X8 VGND VPWR VGND VGND sky130_fd_pr__nfet_01v8 ad=0.143 pd=1.62 as=0 ps=0 w=0.55 l=1.97
X9 VPWR VGND VPWR VPWR sky130_fd_pr__pfet_01v8_hvt ad=0.2262 pd=2.26 as=0 ps=0 w=0.87 l=4.73
X10 VGND VPWR VGND VGND sky130_fd_pr__nfet_01v8 ad=0.143 pd=1.62 as=0 ps=0 w=0.55 l=2.89
X11 VPWR VGND VPWR VPWR sky130_fd_pr__pfet_01v8_hvt ad=0.2262 pd=2.26 as=0 ps=0 w=0.87 l=4.73
X12 a_12231_12319# _004_ VPWR VPWR sky130_fd_pr__pfet_01v8_hvt ad=0.0567 pd=0.69 as=0.0819 ps=0.81 w=0.42 l=0.15
X13 VGND _023_ a_4811_13423# VGND sky130_fd_pr__nfet_01v8 ad=0.08775 pd=0.92 as=0.169 ps=1.82 w=0.65 l=0.15
X14 VPWR VGND VPWR VPWR sky130_fd_pr__pfet_01v8_hvt ad=0.2262 pd=2.26 as=0 ps=0 w=0.87 l=2.89
X15 VGND VPWR VGND VGND sky130_fd_pr__nfet_01v8 ad=0.143 pd=1.62 as=0 ps=0 w=0.55 l=1.05
X16 VGND VPWR VGND VGND sky130_fd_pr__nfet_01v8 ad=0.143 pd=1.62 as=0 ps=0 w=0.55 l=4.73
X17 a_5090_13103# _024_ _031_ VPWR sky130_fd_pr__pfet_01v8_hvt ad=0.1125 pd=1.225 as=0.2325 ps=1.465 w=1 l=0.15
X18 VPWR VGND VPWR VPWR sky130_fd_pr__pfet_01v8_hvt ad=0.2262 pd=2.26 as=0 ps=0 w=0.87 l=4.73
X19 _013_ a_8478_11247# VGND VGND sky130_fd_pr__nfet_01v8 ad=0.169 pd=1.82 as=0.25675 ps=1.44 w=0.65 l=0.15
X20 VPWR a_12056_14569# a_12231_14495# VPWR sky130_fd_pr__pfet_01v8_hvt ad=0.1134 pd=1.38 as=0.0567 ps=0.69 w=0.42 l=0.15
X21 VGND VPWR VGND VGND sky130_fd_pr__nfet_01v8 ad=0.143 pd=1.62 as=0 ps=0 w=0.55 l=4.73
X22 VGND VPWR VGND VGND sky130_fd_pr__nfet_01v8 ad=0.143 pd=1.62 as=0 ps=0 w=0.55 l=0.59
X23 VPWR a_4605_12533# clknet_1_0__leaf_clk VPWR sky130_fd_pr__pfet_01v8_hvt ad=0.14 pd=1.28 as=0.14 ps=1.28 w=1 l=0.15
X24 VPWR VGND VPWR VPWR sky130_fd_pr__pfet_01v8_hvt ad=0.2262 pd=2.26 as=0 ps=0 w=0.87 l=1.97
X25 VGND VPWR VGND VGND sky130_fd_pr__nfet_01v8 ad=0.143 pd=1.62 as=0 ps=0 w=0.55 l=0.59
X26 VPWR VGND VPWR VPWR sky130_fd_pr__pfet_01v8_hvt ad=0.2262 pd=2.26 as=0 ps=0 w=0.87 l=4.73
X27 VPWR VGND VPWR VPWR sky130_fd_pr__pfet_01v8_hvt ad=0.2262 pd=2.26 as=0 ps=0 w=0.87 l=4.73
X28 VGND a_8823_13621# a_8565_13621# VGND sky130_fd_pr__nfet_01v8 ad=0.0567 pd=0.69 as=0.1092 ps=1.36 w=0.42 l=0.5
X29 VGND VPWR VGND VGND sky130_fd_pr__nfet_01v8 ad=0.143 pd=1.62 as=0 ps=0 w=0.55 l=4.73
X30 a_6909_14197# a_6743_14197# VGND VGND sky130_fd_pr__nfet_01v8 ad=0.1092 pd=1.36 as=0.0567 ps=0.69 w=0.42 l=0.15
X31 VGND VPWR VGND VGND sky130_fd_pr__nfet_01v8 ad=0.143 pd=1.62 as=0 ps=0 w=0.55 l=4.73
X32 VGND VPWR VGND VGND sky130_fd_pr__nfet_01v8 ad=0.143 pd=1.62 as=0 ps=0 w=0.55 l=4.73
X33 a_9153_11471# a_8951_11517# _035_ VGND sky130_fd_pr__nfet_01v8 ad=0.08775 pd=0.92 as=0.08775 ps=0.92 w=0.65 l=0.15
X34 VPWR VGND VPWR VPWR sky130_fd_pr__pfet_01v8_hvt ad=0.2262 pd=2.26 as=0 ps=0 w=0.87 l=4.73
X35 VPWR clk a_6550_12559# VPWR sky130_fd_pr__pfet_01v8_hvt ad=0.14 pd=1.28 as=0.14 ps=1.28 w=1 l=0.15
X36 VGND VPWR VGND VGND sky130_fd_pr__nfet_01v8 ad=0.143 pd=1.62 as=0 ps=0 w=0.55 l=4.73
X37 VGND a_6828_10749# a_7398_10383# VGND sky130_fd_pr__nfet_01v8 ad=0.097 pd=0.975 as=0.1092 ps=1.36 w=0.42 l=0.15
X38 VGND VPWR VGND VGND sky130_fd_pr__nfet_01v8 ad=0.143 pd=1.62 as=0 ps=0 w=0.55 l=4.73
X39 VGND _042_ a_10448_12335# VGND sky130_fd_pr__nfet_01v8 ad=0.167375 pd=1.165 as=0.0975 ps=0.95 w=0.65 l=0.15
X40 a_5147_12319# _010_ VPWR VPWR sky130_fd_pr__pfet_01v8_hvt ad=0.0567 pd=0.69 as=0.0819 ps=0.81 w=0.42 l=0.15
X41 a_12056_12393# a_11141_12021# a_11709_11989# VGND sky130_fd_pr__nfet_01v8 ad=0.0711 pd=0.755 as=0.0999 ps=0.985 w=0.36 l=0.15
X42 _046_ a_4627_14191# VPWR VPWR sky130_fd_pr__pfet_01v8_hvt ad=0.135 pd=1.27 as=0.135 ps=1.27 w=1 l=0.15
X43 VPWR VGND VPWR VPWR sky130_fd_pr__pfet_01v8_hvt ad=0.2262 pd=2.26 as=0 ps=0 w=0.87 l=4.73
X44 VGND VPWR VGND VGND sky130_fd_pr__nfet_01v8 ad=0.143 pd=1.62 as=0 ps=0 w=0.55 l=4.73
X45 VPWR VGND VPWR VPWR sky130_fd_pr__pfet_01v8_hvt ad=0.2262 pd=2.26 as=0 ps=0 w=0.87 l=1.05
X46 a_2472_12381# net3 VGND VGND sky130_fd_pr__nfet_01v8 ad=0.066 pd=0.745 as=0.2205 ps=1.89 w=0.42 l=0.15
X47 VGND VPWR VGND VGND sky130_fd_pr__nfet_01v8 ad=0.143 pd=1.62 as=0 ps=0 w=0.55 l=4.73
X48 VGND VPWR VGND VGND sky130_fd_pr__nfet_01v8 ad=0.143 pd=1.62 as=0 ps=0 w=0.55 l=1.97
X49 a_6550_12559# clk VPWR VPWR sky130_fd_pr__pfet_01v8_hvt ad=0.14 pd=1.28 as=0.14 ps=1.28 w=1 l=0.15
X50 a_10356_11247# _028_ a_10236_11247# VGND sky130_fd_pr__nfet_01v8 ad=0.0975 pd=0.95 as=0.14625 ps=1.1 w=0.65 l=0.15
X51 a_2567_12393# a_2217_12021# a_2472_12381# VPWR sky130_fd_pr__pfet_01v8_hvt ad=0.07245 pd=0.765 as=0.0651 ps=0.73 w=0.42 l=0.15
X52 VPWR VGND VPWR VPWR sky130_fd_pr__pfet_01v8_hvt ad=0.2262 pd=2.26 as=0 ps=0 w=0.87 l=4.73
X53 VPWR a_9678_11471# clknet_1_1__leaf_clk VPWR sky130_fd_pr__pfet_01v8_hvt ad=0.14 pd=1.28 as=0.14 ps=1.28 w=1 l=0.15
X54 VGND VPWR VGND VGND sky130_fd_pr__nfet_01v8 ad=0.143 pd=1.62 as=0 ps=0 w=0.55 l=4.73
X55 _012_ _024_ a_9043_11247# VGND sky130_fd_pr__nfet_01v8 ad=0.169 pd=1.82 as=0.08775 ps=0.92 w=0.65 l=0.15
X56 VPWR a_9678_11471# clknet_1_1__leaf_clk VPWR sky130_fd_pr__pfet_01v8_hvt ad=0.265 pd=2.53 as=0.14 ps=1.28 w=1 l=0.15
X57 VGND VPWR VGND VGND sky130_fd_pr__nfet_01v8 ad=0.143 pd=1.62 as=0 ps=0 w=0.55 l=4.73
X58 VGND a_10136_10749# a_10710_10383# VGND sky130_fd_pr__nfet_01v8 ad=0.08775 pd=0.92 as=0.169 ps=1.82 w=0.65 l=0.15
X59 VGND VPWR VGND VGND sky130_fd_pr__nfet_01v8 ad=0.143 pd=1.62 as=0 ps=0 w=0.55 l=0.59
X60 a_5589_11721# net1 VPWR VPWR sky130_fd_pr__pfet_01v8_hvt ad=0.135 pd=1.27 as=0.195 ps=1.39 w=1 l=0.15
X61 VGND VPWR VGND VGND sky130_fd_pr__nfet_01v8 ad=0.143 pd=1.62 as=0 ps=0 w=0.55 l=4.73
X62 a_6353_10071# a_6449_9813# VGND VGND sky130_fd_pr__nfet_01v8 ad=0.1092 pd=1.36 as=0.097 ps=0.975 w=0.42 l=0.5
X63 a_11505_11623# a_11601_11445# VPWR VPWR sky130_fd_pr__pfet_01v8_hvt ad=0.1092 pd=1.36 as=0.14075 ps=1.325 w=0.42 l=0.5
R0 net3 VPWR sky130_fd_pr__res_generic_po w=0.48 l=0.045
X64 VPWR VGND VPWR VPWR sky130_fd_pr__pfet_01v8_hvt ad=0.2262 pd=2.26 as=0 ps=0 w=0.87 l=4.73
X65 clknet_1_0__leaf_clk a_4605_12533# VGND VGND sky130_fd_pr__nfet_01v8 ad=0.0588 pd=0.7 as=0.0588 ps=0.7 w=0.42 l=0.15
X66 a_9301_10383# a_9135_10383# VPWR VPWR sky130_fd_pr__pfet_01v8_hvt ad=0.1664 pd=1.8 as=0.0864 ps=0.91 w=0.64 l=0.15
X67 a_11141_10933# a_10975_10933# VGND VGND sky130_fd_pr__nfet_01v8 ad=0.1092 pd=1.36 as=0.0567 ps=0.69 w=0.42 l=0.15
X68 a_11587_11305# a_11141_10933# a_11491_11305# VGND sky130_fd_pr__nfet_01v8 ad=0.1401 pd=1.1 as=0.0594 ps=0.69 w=0.36 l=0.15
X69 a_7755_12375# state VPWR VPWR sky130_fd_pr__pfet_01v8_hvt ad=0.1176 pd=1.4 as=0.1092 ps=1.36 w=0.42 l=0.15
X70 a_7253_13335# net4 a_7403_13423# VGND sky130_fd_pr__nfet_01v8 ad=0.13325 pd=1.06 as=0.12675 ps=1.04 w=0.65 l=0.15
X71 VPWR VGND VPWR VPWR sky130_fd_pr__pfet_01v8_hvt ad=0.2262 pd=2.26 as=0 ps=0 w=0.87 l=4.73
X72 VPWR VGND VPWR VPWR sky130_fd_pr__pfet_01v8_hvt ad=0.2262 pd=2.26 as=0 ps=0 w=0.87 l=4.73
X73 VPWR VGND VPWR VPWR sky130_fd_pr__pfet_01v8_hvt ad=0.2262 pd=2.26 as=0 ps=0 w=0.87 l=4.73
X74 VPWR VGND VPWR VPWR sky130_fd_pr__pfet_01v8_hvt ad=0.2262 pd=2.26 as=0 ps=0 w=0.87 l=1.97
X75 VPWR bit_index\[1\] _023_ VPWR sky130_fd_pr__pfet_01v8_hvt ad=0.26 pd=2.52 as=0.135 ps=1.27 w=1 l=0.15
X76 a_9689_13219# net1 VGND VGND sky130_fd_pr__nfet_01v8 ad=0.0567 pd=0.69 as=0.0567 ps=0.69 w=0.42 l=0.15
X77 VPWR VGND VPWR VPWR sky130_fd_pr__pfet_01v8_hvt ad=0.2262 pd=2.26 as=0 ps=0 w=0.87 l=1.05
X78 a_3132_12393# a_2051_12021# a_2785_11989# VPWR sky130_fd_pr__pfet_01v8_hvt ad=0.0588 pd=0.7 as=0.12915 ps=1.185 w=0.42 l=0.15
X79 a_9957_14569# a_8767_14197# a_9848_14569# VGND sky130_fd_pr__nfet_01v8 ad=0.0669 pd=0.75 as=0.0711 ps=0.755 w=0.36 l=0.15
X80 VPWR VGND VPWR VPWR sky130_fd_pr__pfet_01v8_hvt ad=0.2262 pd=2.26 as=0 ps=0 w=0.87 l=4.73
X81 VPWR VGND VPWR VPWR sky130_fd_pr__pfet_01v8_hvt ad=0.2262 pd=2.26 as=0 ps=0 w=0.87 l=4.73
X82 out_data\[7\] a_5147_12319# VPWR VPWR sky130_fd_pr__pfet_01v8_hvt ad=0.26 pd=2.52 as=0.3012 ps=2.66 w=1 l=0.15
X83 VGND VPWR VGND VGND sky130_fd_pr__nfet_01v8 ad=0.143 pd=1.62 as=0 ps=0 w=0.55 l=4.73
X84 VGND a_5439_11623# _021_ VGND sky130_fd_pr__nfet_01v8 ad=0.12675 pd=1.04 as=0.234 ps=2.02 w=0.65 l=0.15
X85 VPWR VGND VPWR VPWR sky130_fd_pr__pfet_01v8_hvt ad=0.2262 pd=2.26 as=0 ps=0 w=0.87 l=0.59
X86 VPWR _046_ _007_ VPWR sky130_fd_pr__pfet_01v8_hvt ad=0.26 pd=2.52 as=0.135 ps=1.27 w=1 l=0.15
X87 VPWR VGND VPWR VPWR sky130_fd_pr__pfet_01v8_hvt ad=0.2262 pd=2.26 as=0 ps=0 w=0.87 l=4.73
X88 VPWR VGND VPWR VPWR sky130_fd_pr__pfet_01v8_hvt ad=0.2262 pd=2.26 as=0 ps=0 w=0.87 l=4.73
X89 VPWR VGND VPWR VPWR sky130_fd_pr__pfet_01v8_hvt ad=0.2262 pd=2.26 as=0 ps=0 w=0.87 l=4.73
X90 a_4057_10933# a_3891_10933# VGND VGND sky130_fd_pr__nfet_01v8 ad=0.1092 pd=1.36 as=0.0567 ps=0.69 w=0.42 l=0.15
X91 _016_ a_10138_12015# VGND VGND sky130_fd_pr__nfet_01v8 ad=0.2145 pd=1.96 as=0.167375 ps=1.165 w=0.65 l=0.15
X92 VGND VPWR VGND VGND sky130_fd_pr__nfet_01v8 ad=0.143 pd=1.62 as=0 ps=0 w=0.55 l=4.73
X93 _045_ a_9411_11043# VPWR VPWR sky130_fd_pr__pfet_01v8_hvt ad=0.27 pd=2.54 as=0.14825 ps=1.34 w=1 l=0.15
X94 a_2567_12393# a_2051_12021# a_2472_12381# VGND sky130_fd_pr__nfet_01v8 ad=0.0594 pd=0.69 as=0.066 ps=0.745 w=0.36 l=0.15
X95 VPWR a_8144_10153# a_8202_9839# VPWR sky130_fd_pr__pfet_01v8_hvt ad=0.0567 pd=0.69 as=0.0441 ps=0.63 w=0.42 l=0.15
X96 VPWR reset a_1039_14735# VPWR sky130_fd_pr__pfet_01v8_hvt ad=0.11455 pd=1.08 as=0.2054 ps=2.1 w=0.79 l=0.15
X97 a_8309_10927# net10 VPWR VPWR sky130_fd_pr__pfet_01v8_hvt ad=0.1375 pd=1.275 as=0.14 ps=1.28 w=1 l=0.15
X98 VPWR clknet_0_clk a_4605_12533# VPWR sky130_fd_pr__pfet_01v8_hvt ad=0.265 pd=2.53 as=0.14 ps=1.28 w=1 l=0.15
X99 VGND VPWR VGND VGND sky130_fd_pr__nfet_01v8 ad=0.143 pd=1.62 as=0 ps=0 w=0.55 l=0.59
X100 a_7972_10117# clknet_1_1__leaf_clk VPWR VPWR sky130_fd_pr__pfet_01v8_hvt ad=0.1664 pd=1.8 as=0.0864 ps=0.91 w=0.64 l=0.15
X101 net2 a_1039_14735# VPWR VPWR sky130_fd_pr__pfet_01v8_hvt ad=0.2054 pd=2.1 as=0.11455 ps=1.08 w=0.79 l=0.15
X102 VGND VPWR VGND VGND sky130_fd_pr__nfet_01v8 ad=0.143 pd=1.62 as=0 ps=0 w=0.55 l=1.97
X103 _038_ a_9689_13219# VGND VGND sky130_fd_pr__nfet_01v8 ad=0.182 pd=1.86 as=0.101875 ps=0.99 w=0.65 l=0.15
X104 a_8469_10535# a_8565_10357# VPWR VPWR sky130_fd_pr__pfet_01v8_hvt ad=0.1092 pd=1.36 as=0.14075 ps=1.325 w=0.42 l=0.5
X105 VGND VPWR VGND VGND sky130_fd_pr__nfet_01v8 ad=0.143 pd=1.62 as=0 ps=0 w=0.55 l=4.73
X106 net1 a_8399_591# VGND VGND sky130_fd_pr__nfet_01v8 ad=0.0567 pd=0.69 as=0.06825 ps=0.745 w=0.42 l=0.15
X107 VPWR VGND VPWR VPWR sky130_fd_pr__pfet_01v8_hvt ad=0.2262 pd=2.26 as=0 ps=0 w=0.87 l=4.73
X108 VPWR data_out[2] _039_ VPWR sky130_fd_pr__pfet_01v8_hvt ad=0.182 pd=1.92 as=0.174 ps=1.39 w=0.7 l=0.15
X109 VGND a_8469_13799# net4 VGND sky130_fd_pr__nfet_01v8 ad=0.097 pd=0.975 as=0.169 ps=1.82 w=0.65 l=0.15
X110 VPWR VGND VPWR VPWR sky130_fd_pr__pfet_01v8_hvt ad=0.2262 pd=2.26 as=0 ps=0 w=0.87 l=2.89
X111 VGND VPWR VGND VGND sky130_fd_pr__nfet_01v8 ad=0.143 pd=1.62 as=0 ps=0 w=0.55 l=0.59
X112 a_11057_13103# _038_ VPWR VPWR sky130_fd_pr__pfet_01v8_hvt ad=0.16 pd=1.32 as=0.2529 ps=2.52 w=1 l=0.15
X113 VGND VPWR VGND VGND sky130_fd_pr__nfet_01v8 ad=0.143 pd=1.62 as=0 ps=0 w=0.55 l=4.73
X114 VGND VPWR VGND VGND sky130_fd_pr__nfet_01v8 ad=0.143 pd=1.62 as=0 ps=0 w=0.55 l=0.59
X115 a_8752_9839# a_7972_10117# a_8144_10153# VGND sky130_fd_pr__nfet_01v8 ad=0.0935 pd=0.965 as=0.072 ps=0.76 w=0.36 l=0.15
X116 a_4515_10927# a_3891_10933# a_4407_11305# VPWR sky130_fd_pr__pfet_01v8_hvt ad=0.1155 pd=0.97 as=0.07245 ps=0.765 w=0.42 l=0.15
X117 clknet_1_1__leaf_clk a_9678_11471# VGND VGND sky130_fd_pr__nfet_01v8 ad=0.0588 pd=0.7 as=0.05775 ps=0.695 w=0.42 l=0.15
X118 VGND VPWR VGND VGND sky130_fd_pr__nfet_01v8 ad=0.143 pd=1.62 as=0 ps=0 w=0.55 l=4.73
X119 out_data\[3\] a_10023_14495# VGND VGND sky130_fd_pr__nfet_01v8 ad=0.169 pd=1.82 as=0.2087 ps=2.02 w=0.65 l=0.15
X120 VPWR VGND VPWR VPWR sky130_fd_pr__pfet_01v8_hvt ad=0.2262 pd=2.26 as=0 ps=0 w=0.87 l=4.73
X121 VPWR VGND VPWR VPWR sky130_fd_pr__pfet_01v8_hvt ad=0.2262 pd=2.26 as=0 ps=0 w=0.87 l=4.73
X122 VPWR bit_index\[2\] a_6277_11721# VPWR sky130_fd_pr__pfet_01v8_hvt ad=0.135 pd=1.27 as=0.135 ps=1.27 w=1 l=0.15
X123 clknet_1_1__leaf_clk a_9678_11471# VPWR VPWR sky130_fd_pr__pfet_01v8_hvt ad=0.14 pd=1.28 as=0.14 ps=1.28 w=1 l=0.15
X124 VPWR net2 a_4627_14191# VPWR sky130_fd_pr__pfet_01v8_hvt ad=0.135 pd=1.27 as=0.26 ps=2.52 w=1 l=0.15
X125 VPWR state _041_ VPWR sky130_fd_pr__pfet_01v8_hvt ad=0.26 pd=2.52 as=0.135 ps=1.27 w=1 l=0.15
X126 VGND VPWR VGND VGND sky130_fd_pr__nfet_01v8 ad=0.143 pd=1.62 as=0 ps=0 w=0.55 l=4.73
X127 a_9125_10927# _028_ VPWR VPWR sky130_fd_pr__pfet_01v8_hvt ad=0.105 pd=1.21 as=0.26 ps=2.52 w=1 l=0.15
X128 a_9848_14569# a_8933_14197# a_9501_14165# VGND sky130_fd_pr__nfet_01v8 ad=0.0711 pd=0.755 as=0.0999 ps=0.985 w=0.36 l=0.15
X129 VGND reset a_1039_14735# VGND sky130_fd_pr__nfet_01v8 ad=0.0754 pd=0.81 as=0.1352 ps=1.56 w=0.52 l=0.15
X130 VPWR VGND VPWR VPWR sky130_fd_pr__pfet_01v8_hvt ad=0.2262 pd=2.26 as=0 ps=0 w=0.87 l=4.73
X131 VPWR a_9678_11471# clknet_1_1__leaf_clk VPWR sky130_fd_pr__pfet_01v8_hvt ad=0.14 pd=1.28 as=0.14 ps=1.28 w=1 l=0.15
X132 VPWR VGND VPWR VPWR sky130_fd_pr__pfet_01v8_hvt ad=0.2262 pd=2.26 as=0 ps=0 w=0.87 l=0.59
X133 net2 a_1039_14735# VGND VGND sky130_fd_pr__nfet_01v8 ad=0.1352 pd=1.56 as=0.0754 ps=0.81 w=0.52 l=0.15
X134 a_7987_13335# _024_ VPWR VPWR sky130_fd_pr__pfet_01v8_hvt ad=0.074375 pd=0.815 as=0.142225 ps=1.335 w=0.42 l=0.15
X135 VGND VPWR VGND VGND sky130_fd_pr__nfet_01v8 ad=0.143 pd=1.62 as=0 ps=0 w=0.55 l=4.73
X136 VGND VPWR VGND VGND sky130_fd_pr__nfet_01v8 ad=0.143 pd=1.62 as=0 ps=0 w=0.55 l=4.73
X137 VPWR _033_ a_7376_13897# VPWR sky130_fd_pr__pfet_01v8_hvt ad=0.3275 pd=1.655 as=0.195 ps=1.39 w=1 l=0.15
X138 a_5883_13621# _008_ VPWR VPWR sky130_fd_pr__pfet_01v8_hvt ad=0.0567 pd=0.69 as=0.0819 ps=0.81 w=0.42 l=0.15
X139 VPWR VGND VPWR VPWR sky130_fd_pr__pfet_01v8_hvt ad=0.2262 pd=2.26 as=0 ps=0 w=0.87 l=4.73
X140 VGND VPWR VGND VGND sky130_fd_pr__nfet_01v8 ad=0.143 pd=1.62 as=0 ps=0 w=0.55 l=4.73
X141 VPWR VGND VPWR VPWR sky130_fd_pr__pfet_01v8_hvt ad=0.2262 pd=2.26 as=0 ps=0 w=0.87 l=4.73
X142 VPWR VGND VPWR VPWR sky130_fd_pr__pfet_01v8_hvt ad=0.2262 pd=2.26 as=0 ps=0 w=0.87 l=0.59
X143 VGND VPWR VGND VGND sky130_fd_pr__nfet_01v8 ad=0.143 pd=1.62 as=0 ps=0 w=0.55 l=0.59
X144 VPWR VGND VPWR VPWR sky130_fd_pr__pfet_01v8_hvt ad=0.2262 pd=2.26 as=0 ps=0 w=0.87 l=4.73
X145 VGND VPWR VGND VGND sky130_fd_pr__nfet_01v8 ad=0.143 pd=1.62 as=0 ps=0 w=0.55 l=0.59
X146 VPWR VGND VPWR VPWR sky130_fd_pr__pfet_01v8_hvt ad=0.2262 pd=2.26 as=0 ps=0 w=0.87 l=4.73
X147 _037_ _028_ VGND VGND sky130_fd_pr__nfet_01v8 ad=0.08775 pd=0.92 as=0.169 ps=1.82 w=0.65 l=0.15
X148 data_out[5] out_data\[5\] VGND VGND sky130_fd_pr__nfet_01v8 ad=0.08775 pd=0.92 as=0.169 ps=1.82 w=0.65 l=0.15
X149 a_7164_14557# _019_ VPWR VPWR sky130_fd_pr__pfet_01v8_hvt ad=0.0651 pd=0.73 as=0.1092 ps=1.36 w=0.42 l=0.15
X150 VPWR clknet_1_1__leaf_clk a_9135_10383# VPWR sky130_fd_pr__pfet_01v8_hvt ad=0.0864 pd=0.91 as=0.1664 ps=1.8 w=0.64 l=0.15
X151 VGND clknet_1_1__leaf_clk a_10975_10933# VGND sky130_fd_pr__nfet_01v8 ad=0.0567 pd=0.69 as=0.1092 ps=1.36 w=0.42 l=0.15
X152 _028_ a_9135_13647# VPWR VPWR sky130_fd_pr__pfet_01v8_hvt ad=0.135 pd=1.27 as=0.149 ps=1.325 w=1 l=0.15
X153 VPWR VGND VPWR VPWR sky130_fd_pr__pfet_01v8_hvt ad=0.2262 pd=2.26 as=0 ps=0 w=0.87 l=1.97
X154 out_data\[2\] a_12231_14495# VPWR VPWR sky130_fd_pr__pfet_01v8_hvt ad=0.26 pd=2.52 as=0.3012 ps=2.66 w=1 l=0.15
X155 VGND VPWR VGND VGND sky130_fd_pr__nfet_01v8 ad=0.143 pd=1.62 as=0 ps=0 w=0.55 l=4.73
X156 a_9678_11471# clknet_0_clk VPWR VPWR sky130_fd_pr__pfet_01v8_hvt ad=0.14 pd=1.28 as=0.14 ps=1.28 w=1 l=0.15
X157 VGND VPWR VGND VGND sky130_fd_pr__nfet_01v8 ad=0.143 pd=1.62 as=0 ps=0 w=0.55 l=0.59
X158 VPWR VGND VPWR VPWR sky130_fd_pr__pfet_01v8_hvt ad=0.2262 pd=2.26 as=0 ps=0 w=0.87 l=4.73
X159 VGND VPWR VGND VGND sky130_fd_pr__nfet_01v8 ad=0.143 pd=1.62 as=0 ps=0 w=0.55 l=1.05
X160 VPWR _046_ _004_ VPWR sky130_fd_pr__pfet_01v8_hvt ad=0.26 pd=2.52 as=0.135 ps=1.27 w=1 l=0.15
X161 VPWR VGND VPWR VPWR sky130_fd_pr__pfet_01v8_hvt ad=0.2262 pd=2.26 as=0 ps=0 w=0.87 l=4.73
X162 VPWR VGND VPWR VPWR sky130_fd_pr__pfet_01v8_hvt ad=0.2262 pd=2.26 as=0 ps=0 w=0.87 l=2.89
X163 a_7164_14557# _019_ VGND VGND sky130_fd_pr__nfet_01v8 ad=0.066 pd=0.745 as=0.2205 ps=1.89 w=0.42 l=0.15
X164 VPWR out_data\[2\] data_out[2] VPWR sky130_fd_pr__pfet_01v8_hvt ad=0.26 pd=2.52 as=0.135 ps=1.27 w=1 l=0.15
X165 VGND VPWR VGND VGND sky130_fd_pr__nfet_01v8 ad=0.143 pd=1.62 as=0 ps=0 w=0.55 l=4.73
X166 VPWR VGND VPWR VPWR sky130_fd_pr__pfet_01v8_hvt ad=0.2262 pd=2.26 as=0 ps=0 w=0.87 l=1.05
X167 VGND VPWR VGND VGND sky130_fd_pr__nfet_01v8 ad=0.143 pd=1.62 as=0 ps=0 w=0.55 l=2.89
X168 VGND VPWR VGND VGND sky130_fd_pr__nfet_01v8 ad=0.143 pd=1.62 as=0 ps=0 w=0.55 l=0.59
X169 a_8392_11247# _028_ VGND VGND sky130_fd_pr__nfet_01v8 ad=0.091 pd=0.93 as=0.17225 ps=1.83 w=0.65 l=0.15
X170 VPWR VGND VPWR VPWR sky130_fd_pr__pfet_01v8_hvt ad=0.2262 pd=2.26 as=0 ps=0 w=0.87 l=0.59
X171 a_7403_13423# _034_ a_7253_13335# VGND sky130_fd_pr__nfet_01v8 ad=0.1885 pd=1.88 as=0.13325 ps=1.06 w=0.65 l=0.15
X172 a_10328_12335# bit_index\[0\] a_10138_12015# VGND sky130_fd_pr__nfet_01v8 ad=0.14625 pd=1.1 as=0.143 ps=1.09 w=0.65 l=0.15
X173 VPWR a_4605_12533# clknet_1_0__leaf_clk VPWR sky130_fd_pr__pfet_01v8_hvt ad=0.1375 pd=1.275 as=0.14 ps=1.28 w=1 l=0.15
X174 VPWR clknet_0_clk a_4605_12533# VPWR sky130_fd_pr__pfet_01v8_hvt ad=0.14 pd=1.28 as=0.14 ps=1.28 w=1 l=0.15
X175 VGND VPWR VGND VGND sky130_fd_pr__nfet_01v8 ad=0.143 pd=1.62 as=0 ps=0 w=0.55 l=4.73
X176 VPWR VGND VPWR VPWR sky130_fd_pr__pfet_01v8_hvt ad=0.2262 pd=2.26 as=0 ps=0 w=0.87 l=4.73
X177 VGND VPWR VGND VGND sky130_fd_pr__nfet_01v8 ad=0.143 pd=1.62 as=0 ps=0 w=0.55 l=4.73
X178 VGND a_6265_13103# a_6371_13103# VGND sky130_fd_pr__nfet_01v8 ad=0.097 pd=0.975 as=0.1092 ps=1.36 w=0.42 l=0.5
X179 VPWR VGND VPWR VPWR sky130_fd_pr__pfet_01v8_hvt ad=0.2262 pd=2.26 as=0 ps=0 w=0.87 l=4.73
X180 a_6592_10383# _002_ VGND VGND sky130_fd_pr__nfet_01v8 ad=0.0441 pd=0.63 as=0.0882 ps=0.84 w=0.42 l=0.15
X181 VGND VPWR VGND VGND sky130_fd_pr__nfet_01v8 ad=0.143 pd=1.62 as=0 ps=0 w=0.55 l=0.59
X182 VPWR VGND VPWR VPWR sky130_fd_pr__pfet_01v8_hvt ad=0.2262 pd=2.26 as=0 ps=0 w=0.87 l=0.59
X183 VPWR VGND VPWR VPWR sky130_fd_pr__pfet_01v8_hvt ad=0.2262 pd=2.26 as=0 ps=0 w=0.87 l=2.89
X184 a_9188_14557# _018_ VPWR VPWR sky130_fd_pr__pfet_01v8_hvt ad=0.0651 pd=0.73 as=0.1092 ps=1.36 w=0.42 l=0.15
X185 VPWR a_6550_12559# clknet_0_clk VPWR sky130_fd_pr__pfet_01v8_hvt ad=0.265 pd=2.53 as=0.14 ps=1.28 w=1 l=0.15
X186 VGND VPWR VGND VGND sky130_fd_pr__nfet_01v8 ad=0.143 pd=1.62 as=0 ps=0 w=0.55 l=4.73
X187 VPWR VGND VPWR VPWR sky130_fd_pr__pfet_01v8_hvt ad=0.2262 pd=2.26 as=0 ps=0 w=0.87 l=4.73
X188 VPWR a_8909_13335# _018_ VPWR sky130_fd_pr__pfet_01v8_hvt ad=0.135 pd=1.27 as=0.335 ps=2.67 w=1 l=0.15
X189 VGND VPWR VGND VGND sky130_fd_pr__nfet_01v8 ad=0.143 pd=1.62 as=0 ps=0 w=0.55 l=4.73
X190 VPWR VGND VPWR VPWR sky130_fd_pr__pfet_01v8_hvt ad=0.2262 pd=2.26 as=0 ps=0 w=0.87 l=1.97
X191 a_7986_14191# a_6909_14197# a_7824_14569# VPWR sky130_fd_pr__pfet_01v8_hvt ad=0.0567 pd=0.69 as=0.0588 ps=0.7 w=0.42 l=0.15
X192 _012_ _042_ a_9125_10927# VPWR sky130_fd_pr__pfet_01v8_hvt ad=0.174 pd=1.39 as=0.105 ps=1.21 w=1 l=0.15
X193 VPWR VGND VPWR VPWR sky130_fd_pr__pfet_01v8_hvt ad=0.2262 pd=2.26 as=0 ps=0 w=0.87 l=0.59
X194 a_9309_12131# _042_ VGND VGND sky130_fd_pr__nfet_01v8 ad=0.1092 pd=1.36 as=0.1092 ps=1.36 w=0.42 l=0.15
X195 VPWR a_7987_13335# _034_ VPWR sky130_fd_pr__pfet_01v8_hvt ad=0.142225 pd=1.335 as=0.26 ps=2.52 w=1 l=0.15
X196 a_4625_10901# a_4407_11305# VPWR VPWR sky130_fd_pr__pfet_01v8_hvt ad=0.12915 pd=1.185 as=0.2184 ps=2.2 w=0.84 l=0.15
X197 _011_ net2 VPWR VPWR sky130_fd_pr__pfet_01v8_hvt ad=0.135 pd=1.27 as=0.26 ps=2.52 w=1 l=0.15
X198 VPWR _046_ _003_ VPWR sky130_fd_pr__pfet_01v8_hvt ad=0.26 pd=2.52 as=0.135 ps=1.27 w=1 l=0.15
X199 clknet_0_clk a_6550_12559# VPWR VPWR sky130_fd_pr__pfet_01v8_hvt ad=0.14 pd=1.28 as=0.14 ps=1.28 w=1 l=0.15
X200 VPWR VGND VPWR VPWR sky130_fd_pr__pfet_01v8_hvt ad=0.2262 pd=2.26 as=0 ps=0 w=0.87 l=4.73
X201 VPWR VGND VPWR VPWR sky130_fd_pr__pfet_01v8_hvt ad=0.2262 pd=2.26 as=0 ps=0 w=0.87 l=4.73
X202 VPWR VGND VPWR VPWR sky130_fd_pr__pfet_01v8_hvt ad=0.2262 pd=2.26 as=0 ps=0 w=0.87 l=0.59
X203 VPWR VGND VPWR VPWR sky130_fd_pr__pfet_01v8_hvt ad=0.2262 pd=2.26 as=0 ps=0 w=0.87 l=4.73
X204 VGND VPWR VGND VGND sky130_fd_pr__nfet_01v8 ad=0.143 pd=1.62 as=0 ps=0 w=0.55 l=4.73
X205 VPWR VGND VPWR VPWR sky130_fd_pr__pfet_01v8_hvt ad=0.2262 pd=2.26 as=0 ps=0 w=0.87 l=4.73
X206 VGND VPWR VGND VGND sky130_fd_pr__nfet_01v8 ad=0.143 pd=1.62 as=0 ps=0 w=0.55 l=4.73
X207 a_6277_11721# net11 a_6059_11445# VPWR sky130_fd_pr__pfet_01v8_hvt ad=0.135 pd=1.27 as=0.26 ps=2.52 w=1 l=0.15
X208 data_out[6] out_data\[6\] VGND VGND sky130_fd_pr__nfet_01v8 ad=0.08775 pd=0.92 as=0.169 ps=1.82 w=0.65 l=0.15
X209 VGND VPWR VGND VGND sky130_fd_pr__nfet_01v8 ad=0.143 pd=1.62 as=0 ps=0 w=0.55 l=2.89
X210 a_11709_11989# a_11491_12393# VGND VGND sky130_fd_pr__nfet_01v8 ad=0.0999 pd=0.985 as=0.1346 ps=1.15 w=0.64 l=0.15
X211 VGND VPWR VGND VGND sky130_fd_pr__nfet_01v8 ad=0.143 pd=1.62 as=0 ps=0 w=0.55 l=1.05
X212 VPWR VGND VPWR VPWR sky130_fd_pr__pfet_01v8_hvt ad=0.2262 pd=2.26 as=0 ps=0 w=0.87 l=4.73
X213 a_7259_14569# a_6743_14197# a_7164_14557# VGND sky130_fd_pr__nfet_01v8 ad=0.0594 pd=0.69 as=0.066 ps=0.745 w=0.36 l=0.15
X214 _041_ state VPWR VPWR sky130_fd_pr__pfet_01v8_hvt ad=0.135 pd=1.27 as=0.26 ps=2.52 w=1 l=0.15
X215 VGND VPWR VGND VGND sky130_fd_pr__nfet_01v8 ad=0.143 pd=1.62 as=0 ps=0 w=0.55 l=4.73
X216 VGND _032_ a_10699_13647# VGND sky130_fd_pr__nfet_01v8 ad=0.10725 pd=0.98 as=0.169 ps=1.82 w=0.65 l=0.15
X217 VPWR a_7167_11445# a_6909_11445# VPWR sky130_fd_pr__pfet_01v8_hvt ad=0.0567 pd=0.69 as=0.1092 ps=1.36 w=0.42 l=0.5
X218 VGND VPWR VGND VGND sky130_fd_pr__nfet_01v8 ad=0.143 pd=1.62 as=0 ps=0 w=0.55 l=4.73
X219 VGND VPWR VGND VGND sky130_fd_pr__nfet_01v8 ad=0.143 pd=1.62 as=0 ps=0 w=0.55 l=1.05
X220 VGND VPWR VGND VGND sky130_fd_pr__nfet_01v8 ad=0.143 pd=1.62 as=0 ps=0 w=0.55 l=4.73
X221 VGND VPWR VGND VGND sky130_fd_pr__nfet_01v8 ad=0.143 pd=1.62 as=0 ps=0 w=0.55 l=4.73
X222 VPWR VGND VPWR VPWR sky130_fd_pr__pfet_01v8_hvt ad=0.2262 pd=2.26 as=0 ps=0 w=0.87 l=2.89
X223 _043_ a_9415_12131# VPWR VPWR sky130_fd_pr__pfet_01v8_hvt ad=0.275 pd=2.55 as=0.14825 ps=1.34 w=1 l=0.15
X224 _006_ _046_ VGND VGND sky130_fd_pr__nfet_01v8 ad=0.08775 pd=0.92 as=0.169 ps=1.82 w=0.65 l=0.15
X225 VGND VPWR VGND VGND sky130_fd_pr__nfet_01v8 ad=0.143 pd=1.62 as=0 ps=0 w=0.55 l=4.73
X226 VPWR VGND VPWR VPWR sky130_fd_pr__pfet_01v8_hvt ad=0.2262 pd=2.26 as=0 ps=0 w=0.87 l=0.59
X227 a_7987_13335# a_8260_13335# a_8218_13463# VGND sky130_fd_pr__nfet_01v8 ad=0.107825 pd=1.36 as=0.0441 ps=0.63 w=0.42 l=0.15
X228 a_11709_14165# a_11491_14569# VPWR VPWR sky130_fd_pr__pfet_01v8_hvt ad=0.12915 pd=1.185 as=0.2184 ps=2.2 w=0.84 l=0.15
X229 _001_ _046_ VGND VGND sky130_fd_pr__nfet_01v8 ad=0.08775 pd=0.92 as=0.169 ps=1.82 w=0.65 l=0.15
X230 VPWR VGND VPWR VPWR sky130_fd_pr__pfet_01v8_hvt ad=0.2262 pd=2.26 as=0 ps=0 w=0.87 l=4.73
X231 VGND VPWR VGND VGND sky130_fd_pr__nfet_01v8 ad=0.143 pd=1.62 as=0 ps=0 w=0.55 l=2.89
X232 a_10010_14191# a_8933_14197# a_9848_14569# VPWR sky130_fd_pr__pfet_01v8_hvt ad=0.0567 pd=0.69 as=0.0588 ps=0.7 w=0.42 l=0.15
X233 VPWR VGND VPWR VPWR sky130_fd_pr__pfet_01v8_hvt ad=0.2262 pd=2.26 as=0 ps=0 w=0.87 l=2.89
X234 VPWR VGND VPWR VPWR sky130_fd_pr__pfet_01v8_hvt ad=0.2262 pd=2.26 as=0 ps=0 w=0.87 l=1.05
X235 a_10975_13103# _040_ a_11057_13423# VGND sky130_fd_pr__nfet_01v8 ad=0.169 pd=1.82 as=0.07475 ps=0.88 w=0.65 l=0.15
X236 a_11505_11623# a_11601_11445# VGND VGND sky130_fd_pr__nfet_01v8 ad=0.1092 pd=1.36 as=0.097 ps=0.975 w=0.42 l=0.5
X237 VPWR VGND VPWR VPWR sky130_fd_pr__pfet_01v8_hvt ad=0.2262 pd=2.26 as=0 ps=0 w=0.87 l=4.73
X238 VGND VPWR VGND VGND sky130_fd_pr__nfet_01v8 ad=0.143 pd=1.62 as=0 ps=0 w=0.55 l=4.73
X239 a_11396_11293# _015_ VGND VGND sky130_fd_pr__nfet_01v8 ad=0.066 pd=0.745 as=0.2205 ps=1.89 w=0.42 l=0.15
X240 bit_index\[2\] a_7398_10383# VPWR VPWR sky130_fd_pr__pfet_01v8_hvt ad=0.26 pd=2.52 as=0.149 ps=1.325 w=1 l=0.15
X241 VPWR _002_ a_6828_10749# VPWR sky130_fd_pr__pfet_01v8_hvt ad=0.12285 pd=1.17 as=0.1092 ps=1.36 w=0.42 l=0.15
X242 VGND VPWR VGND VGND sky130_fd_pr__nfet_01v8 ad=0.143 pd=1.62 as=0 ps=0 w=0.55 l=2.89
X243 VGND VPWR VGND VGND sky130_fd_pr__nfet_01v8 ad=0.143 pd=1.62 as=0 ps=0 w=0.55 l=1.97
X244 VGND _000_ a_10408_10383# VGND sky130_fd_pr__nfet_01v8 ad=0.1137 pd=1.01 as=0.0441 ps=0.63 w=0.42 l=0.15
X245 VPWR VGND VPWR VPWR sky130_fd_pr__pfet_01v8_hvt ad=0.2262 pd=2.26 as=0 ps=0 w=0.87 l=0.59
X246 VPWR VGND VPWR VPWR sky130_fd_pr__pfet_01v8_hvt ad=0.2262 pd=2.26 as=0 ps=0 w=0.87 l=0.59
X247 VPWR VGND VPWR VPWR sky130_fd_pr__pfet_01v8_hvt ad=0.2262 pd=2.26 as=0 ps=0 w=0.87 l=4.73
X248 a_6448_10357# a_6272_10383# a_6592_10383# VGND sky130_fd_pr__nfet_01v8 ad=0.1092 pd=1.36 as=0.0441 ps=0.63 w=0.42 l=0.15
X249 VPWR a_9501_14165# a_9391_14191# VPWR sky130_fd_pr__pfet_01v8_hvt ad=0.07035 pd=0.755 as=0.1155 ps=0.97 w=0.42 l=0.15
X250 a_4605_12533# clknet_0_clk VGND VGND sky130_fd_pr__nfet_01v8 ad=0.0588 pd=0.7 as=0.0588 ps=0.7 w=0.42 l=0.15
X251 a_9283_14569# a_8767_14197# a_9188_14557# VGND sky130_fd_pr__nfet_01v8 ad=0.0594 pd=0.69 as=0.066 ps=0.745 w=0.36 l=0.15
X252 VGND VPWR VGND VGND sky130_fd_pr__nfet_01v8 ad=0.143 pd=1.62 as=0 ps=0 w=0.55 l=4.73
X253 VPWR VGND VPWR VPWR sky130_fd_pr__pfet_01v8_hvt ad=0.2262 pd=2.26 as=0 ps=0 w=0.87 l=0.59
X254 VGND VPWR VGND VGND sky130_fd_pr__nfet_01v8 ad=0.143 pd=1.62 as=0 ps=0 w=0.55 l=0.59
X255 a_6553_9295# net8 a_6335_9269# VGND sky130_fd_pr__nfet_01v8 ad=0.10075 pd=0.96 as=0.169 ps=1.82 w=0.65 l=0.15
X256 VPWR out_data\[0\] data_out[0] VPWR sky130_fd_pr__pfet_01v8_hvt ad=0.26 pd=2.52 as=0.135 ps=1.27 w=1 l=0.15
X257 a_7403_13423# net1 VGND VGND sky130_fd_pr__nfet_01v8 ad=0.10725 pd=0.98 as=0.08775 ps=0.92 w=0.65 l=0.15
X258 a_4515_10927# _009_ VPWR VPWR sky130_fd_pr__pfet_01v8_hvt ad=0.1092 pd=1.36 as=0.07035 ps=0.755 w=0.42 l=0.15
X259 VPWR _030_ a_5090_13103# VPWR sky130_fd_pr__pfet_01v8_hvt ad=0.26 pd=2.52 as=0.1125 ps=1.225 w=1 l=0.15
X260 data_out[2] out_data\[2\] VPWR VPWR sky130_fd_pr__pfet_01v8_hvt ad=0.135 pd=1.27 as=0.26 ps=2.52 w=1 l=0.15
X261 VPWR VGND VPWR VPWR sky130_fd_pr__pfet_01v8_hvt ad=0.2262 pd=2.26 as=0 ps=0 w=0.87 l=1.05
X262 VGND VPWR VGND VGND sky130_fd_pr__nfet_01v8 ad=0.143 pd=1.62 as=0 ps=0 w=0.55 l=0.59
X263 VPWR a_4605_12533# clknet_1_0__leaf_clk VPWR sky130_fd_pr__pfet_01v8_hvt ad=0.14 pd=1.28 as=0.14 ps=1.28 w=1 l=0.15
X264 VGND VPWR VGND VGND sky130_fd_pr__nfet_01v8 ad=0.143 pd=1.62 as=0 ps=0 w=0.55 l=4.73
X265 _035_ a_8951_11517# a_9153_11471# VGND sky130_fd_pr__nfet_01v8 ad=0.08775 pd=0.92 as=0.169 ps=1.82 w=0.65 l=0.15
X266 VGND clk a_6550_12559# VGND sky130_fd_pr__nfet_01v8 ad=0.0588 pd=0.7 as=0.0588 ps=0.7 w=0.42 l=0.15
X267 _010_ net2 VGND VGND sky130_fd_pr__nfet_01v8 ad=0.08775 pd=0.92 as=0.169 ps=1.82 w=0.65 l=0.15
X268 a_2663_12393# a_2217_12021# a_2567_12393# VGND sky130_fd_pr__nfet_01v8 ad=0.1401 pd=1.1 as=0.0594 ps=0.69 w=0.36 l=0.15
X269 a_6272_10383# a_5989_10383# a_6177_10383# VPWR sky130_fd_pr__pfet_01v8_hvt ad=0.0567 pd=0.69 as=0.12495 ps=1.175 w=0.42 l=0.15
X270 clknet_1_1__leaf_clk a_9678_11471# VGND VGND sky130_fd_pr__nfet_01v8 ad=0.0588 pd=0.7 as=0.0588 ps=0.7 w=0.42 l=0.15
X271 a_8029_12131# a_7755_12375# a_7947_12131# VPWR sky130_fd_pr__pfet_01v8_hvt ad=0.0441 pd=0.63 as=0.1092 ps=1.36 w=0.42 l=0.15
X272 VPWR a_6550_12559# clknet_0_clk VPWR sky130_fd_pr__pfet_01v8_hvt ad=0.14 pd=1.28 as=0.14 ps=1.28 w=1 l=0.15
X273 VPWR VGND VPWR VPWR sky130_fd_pr__pfet_01v8_hvt ad=0.2262 pd=2.26 as=0 ps=0 w=0.87 l=4.73
X274 VGND VPWR VGND VGND sky130_fd_pr__nfet_01v8 ad=0.143 pd=1.62 as=0 ps=0 w=0.55 l=4.73
X275 a_9153_11471# bit_index\[1\] VGND VGND sky130_fd_pr__nfet_01v8 ad=0.169 pd=1.82 as=0.08775 ps=0.92 w=0.65 l=0.15
X276 VPWR VGND VPWR VPWR sky130_fd_pr__pfet_01v8_hvt ad=0.2262 pd=2.26 as=0 ps=0 w=0.87 l=4.73
X277 VGND VPWR VGND VGND sky130_fd_pr__nfet_01v8 ad=0.143 pd=1.62 as=0 ps=0 w=0.55 l=4.73
X278 a_8469_10535# a_8565_10357# VGND VGND sky130_fd_pr__nfet_01v8 ad=0.1092 pd=1.36 as=0.097 ps=0.975 w=0.42 l=0.5
X279 a_5361_13889# a_5143_13647# VPWR VPWR sky130_fd_pr__pfet_01v8_hvt ad=0.12915 pd=1.185 as=0.2184 ps=2.2 w=0.84 l=0.15
X280 VGND VPWR VGND VGND sky130_fd_pr__nfet_01v8 ad=0.143 pd=1.62 as=0 ps=0 w=0.55 l=4.73
X281 _046_ a_4627_14191# VPWR VPWR sky130_fd_pr__pfet_01v8_hvt ad=0.135 pd=1.27 as=0.135 ps=1.27 w=1 l=0.15
X282 VGND VPWR VGND VGND sky130_fd_pr__nfet_01v8 ad=0.143 pd=1.62 as=0 ps=0 w=0.55 l=2.89
X283 a_9589_11043# bit_index\[0\] a_9493_11043# VPWR sky130_fd_pr__pfet_01v8_hvt ad=0.0441 pd=0.63 as=0.0693 ps=0.75 w=0.42 l=0.15
X284 a_9059_13423# _035_ VGND VGND sky130_fd_pr__nfet_01v8 ad=0.12675 pd=1.04 as=0.12675 ps=1.04 w=0.65 l=0.15